<?xml version="1.0" encoding="UTF-8"?>

<!-- generated on 12/30/20 12:42:27 by Eclipse SUMO duarouter Version 1.7.0
<configuration xmlns:xsi="http://www.w3.org/2001/XMLSchema-instance" xsi:noNamespaceSchemaLocation="http://sumo.dlr.de/xsd/duarouterConfiguration.xsd">

    <input>
        <net-file value="C:\Users\Mudit%20Shivendra\Sumo\2020-12-30-12-42-07\osm.net.xml"/>
        <route-files value="C:\Users\Mudit%20Shivendra\Sumo\2020-12-30-12-42-07\osm.passenger.trips.xml"/>
    </input>

    <output>
        <output-file value="C:\Users\Mudit%20Shivendra\Sumo\2020-12-30-12-42-07\osm.passenger.trips.xml.tmp"/>
        <write-trips value="true"/>
    </output>

    <time>
        <begin value="0"/>
        <end value="3600"/>
    </time>

    <report>
        <no-warnings value="true"/>
        <ignore-errors value="true"/>
        <no-step-log value="true"/>
    </report>

</configuration>
-->

<routes xmlns:xsi="http://www.w3.org/2001/XMLSchema-instance" xsi:noNamespaceSchemaLocation="http://sumo.dlr.de/xsd/routes_file.xsd">
    <vType id="veh_passenger" vClass="passenger"/>
    <trip id="veh0" type="veh_passenger" depart="0.00" departLane="best" from="562202339#1" to="-112102230#2"/>
    <trip id="veh1" type="veh_passenger" depart="0.67" departLane="best" from="116046166#3" to="112102196#1"/>
    <trip id="veh2" type="veh_passenger" depart="1.34" departLane="best" from="585446280#7" to="563679836#1"/>
    <trip id="veh3" type="veh_passenger" depart="2.01" departLane="best" from="717046639#1" to="-24583769#0"/>
    <trip id="veh4" type="veh_passenger" depart="2.68" departLane="best" departSpeed="max" from="24584375#0" to="-112102237#6"/>
    <trip id="veh5" type="veh_passenger" depart="3.36" departLane="best" from="-80950003#1" to="292194572#1"/>
    <trip id="veh6" type="veh_passenger" depart="4.03" departLane="best" from="-112102233" to="-722082947"/>
    <trip id="veh7" type="veh_passenger" depart="4.70" departLane="best" from="562479736#6" to="370741864#0"/>
    <trip id="veh8" type="veh_passenger" depart="5.37" departLane="best" from="-80950003#4" to="414024034"/>
    <trip id="veh9" type="veh_passenger" depart="6.04" departLane="best" departSpeed="max" from="70220642#0" to="-112102196#7"/>
    <trip id="veh10" type="veh_passenger" depart="6.71" departLane="best" departSpeed="max" from="70220642#0" to="570859676#2"/>
    <trip id="veh11" type="veh_passenger" depart="7.38" departLane="best" from="24577113" to="-561938852#2"/>
    <trip id="veh12" type="veh_passenger" depart="8.05" departLane="best" departSpeed="max" from="77349459#0" to="24577096#0"/>
    <trip id="veh14" type="veh_passenger" depart="9.40" departLane="best" departSpeed="max" from="70220642#0" to="585446279#0"/>
    <trip id="veh15" type="veh_passenger" depart="10.07" departLane="best" from="370908549#0" to="782774054"/>
    <trip id="veh16" type="veh_passenger" depart="10.74" departLane="best" from="24577409#2" to="370904800#2"/>
    <trip id="veh18" type="veh_passenger" depart="12.08" departLane="best" from="712992075#1" to="37222902#1"/>
    <trip id="veh19" type="veh_passenger" depart="12.75" departLane="best" departSpeed="max" from="581522562" to="-139069980#6"/>
    <trip id="veh20" type="veh_passenger" depart="13.42" departLane="best" from="-80954603#0" to="23134098#2"/>
    <trip id="veh21" type="veh_passenger" depart="14.10" departLane="best" from="-24577418#7" to="112102211"/>
    <trip id="veh22" type="veh_passenger" depart="14.77" departLane="best" from="-278577245#0" to="139069980#7"/>
    <trip id="veh23" type="veh_passenger" depart="15.44" departLane="best" from="552890996#3-AddedOnRampEdge" to="24577367#0"/>
    <trip id="veh24" type="veh_passenger" depart="16.11" departLane="best" from="24577390#0" to="-80950002"/>
    <trip id="veh25" type="veh_passenger" depart="16.78" departLane="best" from="112102241#5" to="758753882"/>
    <trip id="veh26" type="veh_passenger" depart="17.45" departLane="best" departSpeed="max" from="562479736#0" to="447141132#1"/>
    <trip id="veh27" type="veh_passenger" depart="18.12" departLane="best" from="-686644352" to="585446277#1"/>
    <trip id="veh28" type="veh_passenger" depart="18.79" departLane="best" from="-570413591" to="24577391#0"/>
    <trip id="veh29" type="veh_passenger" depart="19.46" departLane="best" from="80950003#4" to="542802207#1"/>
    <trip id="veh30" type="veh_passenger" depart="20.14" departLane="best" from="37222902#1" to="570413591"/>
    <trip id="veh31" type="veh_passenger" depart="20.81" departLane="best" from="709276135#0" to="679552303#1"/>
    <trip id="veh32" type="veh_passenger" depart="21.48" departLane="best" from="112102186" to="-112102238#3"/>
    <trip id="veh33" type="veh_passenger" depart="22.15" departLane="best" from="233262405#1" to="116046167#1"/>
    <trip id="veh34" type="veh_passenger" depart="22.82" departLane="best" from="-772394684" to="758753884"/>
    <trip id="veh35" type="veh_passenger" depart="23.49" departLane="best" departSpeed="max" from="712992080#0" to="235103526#0"/>
    <trip id="veh36" type="veh_passenger" depart="24.16" departLane="best" from="563679835#3" to="24577416#1"/>
    <trip id="veh37" type="veh_passenger" depart="24.83" departLane="best" from="722082929" to="27422252#2"/>
    <trip id="veh38" type="veh_passenger" depart="25.51" departLane="best" from="112102241#12" to="112102237#0"/>
    <trip id="veh39" type="veh_passenger" depart="26.18" departLane="best" from="37222918#0" to="116046165#0"/>
    <trip id="veh40" type="veh_passenger" depart="26.85" departLane="best" from="44352049#0" to="722082945"/>
    <trip id="veh42" type="veh_passenger" depart="28.19" departLane="best" from="819779798#0" to="296963058#0"/>
    <trip id="veh43" type="veh_passenger" depart="28.86" departLane="best" from="-292194572#4" to="44831985#8"/>
    <trip id="veh44" type="veh_passenger" depart="29.53" departLane="best" from="686648816" to="24583587"/>
    <trip id="veh45" type="veh_passenger" depart="30.20" departLane="best" from="-24577361#2" to="24577395"/>
    <trip id="veh46" type="veh_passenger" depart="30.87" departLane="best" from="80954596" to="370533502#0"/>
    <trip id="veh47" type="veh_passenger" depart="31.55" departLane="best" from="77355810#1" to="714992549#0"/>
    <trip id="veh48" type="veh_passenger" depart="32.22" departLane="best" from="-112102206#0" to="582461174#0"/>
    <trip id="veh49" type="veh_passenger" depart="32.89" departLane="best" from="570427350#1" to="370672197#0"/>
    <trip id="veh50" type="veh_passenger" depart="33.56" departLane="best" from="112102241#4" to="548825884"/>
    <trip id="veh51" type="veh_passenger" depart="34.23" departLane="best" from="-292194577#1" to="24584377#1"/>
    <trip id="veh52" type="veh_passenger" depart="34.90" departLane="best" from="28103634#2" to="769647233"/>
    <trip id="veh53" type="veh_passenger" depart="35.57" departLane="best" departSpeed="max" from="712992080#0" to="116046165#1"/>
    <trip id="veh54" type="veh_passenger" depart="36.24" departLane="best" from="32905321" to="-714992549#3"/>
    <trip id="veh55" type="veh_passenger" depart="36.92" departLane="best" from="23134680#1" to="542802206"/>
    <trip id="veh56" type="veh_passenger" depart="37.59" departLane="best" departSpeed="max" from="447141147#0" to="-542802207#2"/>
    <trip id="veh57" type="veh_passenger" depart="38.26" departLane="best" from="656933877#1" to="370741568#0"/>
    <trip id="veh58" type="veh_passenger" depart="38.93" departLane="best" from="679419699" to="370533502#0"/>
    <trip id="veh59" type="veh_passenger" depart="39.60" departLane="best" from="-112102186" to="24563436#6"/>
    <trip id="veh60" type="veh_passenger" depart="40.27" departLane="best" from="-112102221#1" to="758753873"/>
    <trip id="veh61" type="veh_passenger" depart="40.94" departLane="best" from="714992548" to="709276133#0"/>
    <trip id="veh62" type="veh_passenger" depart="41.61" departLane="best" from="23151254#12-AddedOnRampEdge" to="-235103526#1"/>
    <trip id="veh63" type="veh_passenger" depart="42.29" departLane="best" from="714990513#0" to="760536610#0"/>
    <trip id="veh64" type="veh_passenger" depart="42.96" departLane="best" from="-24583590#0" to="28121207#3"/>
    <trip id="veh65" type="veh_passenger" depart="43.63" departLane="best" from="-24577412#2" to="664985709#1"/>
    <trip id="veh66" type="veh_passenger" depart="44.30" departLane="best" from="663858577" to="-370902447"/>
    <trip id="veh67" type="veh_passenger" depart="44.97" departLane="best" from="28121513#0" to="370902452#1"/>
    <trip id="veh68" type="veh_passenger" depart="45.64" departLane="best" from="112102241#12" to="717046639#0"/>
    <trip id="veh69" type="veh_passenger" depart="46.31" departLane="best" from="24584377#0" to="-80950003#3"/>
    <trip id="veh70" type="veh_passenger" depart="46.98" departLane="best" from="370947969#10" to="585446279#0"/>
    <trip id="veh71" type="veh_passenger" depart="47.65" departLane="best" from="-717531847#3" to="23151254#8"/>
    <trip id="veh72" type="veh_passenger" depart="48.33" departLane="best" from="80950064#5" to="561938852#1"/>
    <trip id="veh74" type="veh_passenger" depart="49.67" departLane="best" from="-359757123#3" to="112102196#4"/>
    <trip id="veh75" type="veh_passenger" depart="50.34" departLane="best" from="24577106#0" to="37222923#3"/>
    <trip id="veh77" type="veh_passenger" depart="51.68" departLane="best" from="-24577414#1" to="44831985#9"/>
    <trip id="veh78" type="veh_passenger" depart="52.35" departLane="best" from="112102186" to="732001894"/>
    <trip id="veh79" type="veh_passenger" depart="53.02" departLane="best" from="712992072#2" to="-24577416#0"/>
    <trip id="veh80" type="veh_passenger" depart="53.70" departLane="best" from="112102205#4" to="563679834#3"/>
    <trip id="veh81" type="veh_passenger" depart="54.37" departLane="best" from="-80499789#2" to="-370904800#2"/>
    <trip id="veh82" type="veh_passenger" depart="55.04" departLane="best" from="758488038" to="37222898#0"/>
    <trip id="veh83" type="veh_passenger" depart="55.71" departLane="best" from="28121266#0" to="680551212#0"/>
    <trip id="veh84" type="veh_passenger" depart="56.38" departLane="best" departSpeed="max" from="70220642#0" to="-717531844#2"/>
    <trip id="veh85" type="veh_passenger" depart="57.05" departLane="best" from="-24584391#0" to="24584377#1"/>
    <trip id="veh86" type="veh_passenger" depart="57.72" departLane="best" from="24584377#0" to="27422253#2"/>
    <trip id="veh87" type="veh_passenger" depart="58.39" departLane="best" from="585446277#4" to="563679835#4"/>
    <trip id="veh88" type="veh_passenger" depart="59.06" departLane="best" from="80921410#0" to="-278577245#3"/>
    <trip id="veh89" type="veh_passenger" depart="59.74" departLane="best" from="24583337#6" to="24577096#0"/>
    <trip id="veh90" type="veh_passenger" depart="60.41" departLane="best" from="712992075#1" to="112102237#4"/>
    <trip id="veh91" type="veh_passenger" depart="61.08" departLane="best" from="-717046638#0" to="24618002#5"/>
    <trip id="veh92" type="veh_passenger" depart="61.75" departLane="best" departSpeed="max" from="24584375#0" to="139071812#0"/>
    <trip id="veh93" type="veh_passenger" depart="62.42" departLane="best" from="112102221#5" to="745652418#2"/>
    <trip id="veh94" type="veh_passenger" depart="63.09" departLane="best" from="267446589#1" to="714992549#0"/>
    <trip id="veh95" type="veh_passenger" depart="63.76" departLane="best" departSpeed="max" from="37222897#0" to="-169196737#6"/>
    <trip id="veh96" type="veh_passenger" depart="64.43" departLane="best" from="819779798#1" to="709276136"/>
    <trip id="veh97" type="veh_passenger" depart="65.11" departLane="best" departSpeed="max" from="77355810#0" to="758488035"/>
    <trip id="veh98" type="veh_passenger" depart="65.78" departLane="best" from="710645764" to="-686669562"/>
    <trip id="veh99" type="veh_passenger" depart="66.45" departLane="best" from="292194576#0" to="-80950008#1"/>
    <trip id="veh100" type="veh_passenger" depart="67.12" departLane="best" from="24583337#3" to="-235103526#2"/>
    <trip id="veh101" type="veh_passenger" depart="67.79" departLane="best" from="24577409#2" to="80926764#0"/>
    <trip id="veh102" type="veh_passenger" depart="68.46" departLane="best" from="112102241#12" to="680551211"/>
    <trip id="veh103" type="veh_passenger" depart="69.13" departLane="best" from="28103660#1" to="24583590#0"/>
    <trip id="veh104" type="veh_passenger" depart="69.80" departLane="best" departSpeed="max" from="77349459#0" to="80950064#5"/>
    <trip id="veh105" type="veh_passenger" depart="70.48" departLane="best" from="37222902#0" to="582454143#1"/>
    <trip id="veh106" type="veh_passenger" depart="71.15" departLane="best" from="-48964573#0" to="23134680#1"/>
    <trip id="veh107" type="veh_passenger" depart="71.82" departLane="best" departSpeed="max" from="77355810#0" to="37222903#0"/>
    <trip id="veh108" type="veh_passenger" depart="72.49" departLane="best" from="370947969#6" to="611866595#0-AddedOffRampEdge"/>
    <trip id="veh109" type="veh_passenger" depart="73.16" departLane="best" from="-233262405#0" to="37222919#0"/>
    <trip id="veh110" type="veh_passenger" depart="73.83" departLane="best" from="359559438#0" to="712992075#1"/>
    <trip id="veh112" type="veh_passenger" depart="75.17" departLane="best" from="-24577418#8" to="-717512501"/>
    <trip id="veh113" type="veh_passenger" depart="75.84" departLane="best" from="447141132#1" to="563679835#4"/>
    <trip id="veh114" type="veh_passenger" depart="76.52" departLane="best" from="112102203" to="-370672195#2"/>
    <trip id="veh115" type="veh_passenger" depart="77.19" departLane="best" from="717046637" to="112102234"/>
    <trip id="veh116" type="veh_passenger" depart="77.86" departLane="best" from="447141132#0" to="447141147#2"/>
    <trip id="veh117" type="veh_passenger" depart="78.53" departLane="best" departSpeed="max" from="24584375#0" to="37222919#0"/>
    <trip id="veh118" type="veh_passenger" depart="79.20" departLane="best" from="370741576#0" to="758753882"/>
    <trip id="veh119" type="veh_passenger" depart="79.87" departLane="best" from="-717531848#4" to="581989173#7"/>
    <trip id="veh120" type="veh_passenger" depart="80.54" departLane="best" from="112102205#5" to="24577416#2"/>
    <trip id="veh121" type="veh_passenger" depart="81.21" departLane="best" departSpeed="max" from="570413597#0" to="23134734#2"/>
    <trip id="veh122" type="veh_passenger" depart="81.89" departLane="best" from="233262408" to="656933873"/>
    <trip id="veh123" type="veh_passenger" depart="82.56" departLane="best" from="-24577415#0" to="27422252#1"/>
    <trip id="veh125" type="veh_passenger" depart="83.90" departLane="best" from="-24577416#0" to="-80950008#0"/>
    <trip id="veh126" type="veh_passenger" depart="84.57" departLane="best" from="112102241#12" to="758753881#1"/>
    <trip id="veh127" type="veh_passenger" depart="85.24" departLane="best" from="714992549#0" to="717531845"/>
    <trip id="veh128" type="veh_passenger" depart="85.91" departLane="best" from="24577389#0" to="-570413591"/>
    <trip id="veh130" type="veh_passenger" depart="87.26" departLane="best" from="447141153#0" to="80950003#0"/>
    <trip id="veh131" type="veh_passenger" depart="87.93" departLane="best" from="563679834#5" to="-112102205#0"/>
    <trip id="veh132" type="veh_passenger" depart="88.60" departLane="best" departSpeed="max" from="70258948#0" to="23134734#0"/>
    <trip id="veh133" type="veh_passenger" depart="89.27" departLane="best" from="570413591" to="758753884"/>
    <trip id="veh134" type="veh_passenger" depart="89.94" departLane="best" from="-370902452#1" to="-359757123#2"/>
    <trip id="veh135" type="veh_passenger" depart="90.61" departLane="best" from="-292194566#5" to="370904810#0"/>
    <trip id="veh136" type="veh_passenger" depart="91.28" departLane="best" from="116046165#0" to="44352050#2"/>
    <trip id="veh137" type="veh_passenger" depart="91.95" departLane="best" from="582454143#1" to="-772394684"/>
    <trip id="veh138" type="veh_passenger" depart="92.62" departLane="best" from="552890996#2" to="116046166#1"/>
    <trip id="veh139" type="veh_passenger" depart="93.30" departLane="best" departSpeed="max" from="293530132#0" to="732001894"/>
    <trip id="veh140" type="veh_passenger" depart="93.97" departLane="best" from="709276138#0" to="-24584383#1"/>
    <trip id="veh141" type="veh_passenger" depart="94.64" departLane="best" from="24584377#0" to="139069980#2"/>
    <trip id="veh142" type="veh_passenger" depart="95.31" departLane="best" from="-112102196#2" to="679552303#0"/>
    <trip id="veh143" type="veh_passenger" depart="95.98" departLane="best" from="560629730" to="112102244#4"/>
    <trip id="veh144" type="veh_passenger" depart="96.65" departLane="best" departSpeed="max" from="596373338#0" to="370904800#1"/>
    <trip id="veh145" type="veh_passenger" depart="97.32" departLane="best" from="24584383#1" to="-112102205#4"/>
    <trip id="veh146" type="veh_passenger" depart="97.99" departLane="best" from="-24577417#0" to="717531848#1"/>
    <trip id="veh147" type="veh_passenger" depart="98.67" departLane="best" from="717531848#3" to="370741864#1"/>
    <trip id="veh148" type="veh_passenger" depart="99.34" departLane="best" from="706970966" to="37222918#1-AddedOnRampEdge"/>
    <trip id="veh149" type="veh_passenger" depart="100.01" departLane="best" from="-423539772" to="-370902443#0"/>
    <trip id="veh150" type="veh_passenger" depart="100.68" departLane="best" from="23151254#2" to="722082946#0"/>
    <trip id="veh151" type="veh_passenger" depart="101.35" departLane="best" from="686696028" to="714992549#0"/>
    <trip id="veh152" type="veh_passenger" depart="102.02" departLane="best" from="717531845" to="-80950003#0"/>
    <trip id="veh153" type="veh_passenger" depart="102.69" departLane="best" from="112102221#4" to="-292194566#4"/>
    <trip id="veh154" type="veh_passenger" depart="103.36" departLane="best" from="679552300#0" to="717531848#2"/>
    <trip id="veh155" type="veh_passenger" depart="104.03" departLane="best" from="24583494" to="447141153#1"/>
    <trip id="veh156" type="veh_passenger" depart="104.71" departLane="best" from="-48964573#0" to="758753874"/>
    <trip id="veh157" type="veh_passenger" depart="105.38" departLane="best" from="712992077#0" to="783084112#1"/>
    <trip id="veh158" type="veh_passenger" depart="106.05" departLane="best" departSpeed="max" from="70220642#0" to="717531847#2"/>
    <trip id="veh159" type="veh_passenger" depart="106.72" departLane="best" from="-112102230#0" to="585446280#11"/>
    <trip id="veh160" type="veh_passenger" depart="107.39" departLane="best" from="24563449#9" to="758753880"/>
    <trip id="veh161" type="veh_passenger" depart="108.06" departLane="best" from="697691727#2" to="714992550"/>
    <trip id="veh162" type="veh_passenger" depart="108.73" departLane="best" departSpeed="max" from="70220642#0" to="116046167#1"/>
    <trip id="veh163" type="veh_passenger" depart="109.40" departLane="best" from="680551212#1" to="-292194577#3"/>
    <trip id="veh164" type="veh_passenger" depart="110.08" departLane="best" departSpeed="max" from="712992080#0" to="712992080#3"/>
    <trip id="veh165" type="veh_passenger" depart="110.75" departLane="best" from="-80950035#0" to="70258948#5"/>
    <trip id="veh166" type="veh_passenger" depart="111.42" departLane="best" from="28103660#6" to="23151254#12-AddedOnRampEdge"/>
    <trip id="veh167" type="veh_passenger" depart="112.09" departLane="best" from="686669565" to="112102205#0"/>
    <trip id="veh168" type="veh_passenger" depart="112.76" departLane="best" from="-112102221#9" to="-717531847#2"/>
    <trip id="veh169" type="veh_passenger" depart="113.43" departLane="best" from="24563449#2" to="714992550"/>
    <trip id="veh170" type="veh_passenger" depart="114.10" departLane="best" departSpeed="max" from="77355810#0" to="139071812#1"/>
    <trip id="veh171" type="veh_passenger" depart="114.77" departLane="best" from="562340234#0" to="24577418#3"/>
    <trip id="veh172" type="veh_passenger" depart="115.45" departLane="best" from="783084113#1" to="370672196"/>
    <trip id="veh173" type="veh_passenger" depart="116.12" departLane="best" from="758753880-AddedOnRampEdge" to="-359757123#2"/>
    <trip id="veh174" type="veh_passenger" depart="116.79" departLane="best" from="77355810#0-AddedOffRampEdge" to="-714992549#3"/>
    <trip id="veh175" type="veh_passenger" depart="117.46" departLane="best" from="77349485#1-AddedOnRampEdge" to="116046166#4"/>
    <trip id="veh176" type="veh_passenger" depart="118.13" departLane="best" from="-292194568" to="24584377#1"/>
    <trip id="veh177" type="veh_passenger" depart="118.80" departLane="best" departSpeed="max" from="447141147#0" to="296963058#6-AddedOffRampEdge"/>
    <trip id="veh178" type="veh_passenger" depart="119.47" departLane="best" from="24577415#0" to="37222902#1"/>
    <trip id="veh179" type="veh_passenger" depart="120.14" departLane="best" from="112102233" to="581989173#0"/>
    <trip id="veh180" type="veh_passenger" depart="120.81" departLane="best" from="-112102188#1" to="758488034#1"/>
    <trip id="veh181" type="veh_passenger" depart="121.49" departLane="best" from="370909385#0" to="582461172#0"/>
    <trip id="veh182" type="veh_passenger" depart="122.16" departLane="best" departSpeed="max" from="596373338#0" to="563679835#0"/>
    <trip id="veh183" type="veh_passenger" depart="122.83" departLane="best" from="24577381#5" to="-24577415#1"/>
    <trip id="veh184" type="veh_passenger" depart="123.50" departLane="best" from="570413591" to="24563449#3"/>
    <trip id="veh185" type="veh_passenger" depart="124.17" departLane="best" from="23151254#7-AddedOnRampEdge" to="712992071"/>
    <trip id="veh186" type="veh_passenger" depart="124.84" departLane="best" from="582461174#0" to="23134734#2"/>
    <trip id="veh188" type="veh_passenger" depart="126.18" departLane="best" from="24583337#6" to="23134630#1"/>
    <trip id="veh189" type="veh_passenger" depart="126.86" departLane="best" from="-370672197#1" to="24583584#1"/>
    <trip id="veh190" type="veh_passenger" depart="127.53" departLane="best" from="758753881#1" to="570413587"/>
    <trip id="veh191" type="veh_passenger" depart="128.20" departLane="best" from="717531848#1" to="447141139"/>
    <trip id="veh192" type="veh_passenger" depart="128.87" departLane="best" from="23134734#0" to="370902443#1"/>
    <trip id="veh193" type="veh_passenger" depart="129.54" departLane="best" from="24584389#0" to="37222903#2"/>
    <trip id="veh194" type="veh_passenger" depart="130.21" departLane="best" from="563679835#1" to="27422253#2"/>
    <trip id="veh195" type="veh_passenger" depart="130.88" departLane="best" from="267446586#5" to="-80950008#1"/>
    <trip id="veh196" type="veh_passenger" depart="131.55" departLane="best" from="28121266#1" to="722082948"/>
    <trip id="veh197" type="veh_passenger" depart="132.23" departLane="best" from="686696028" to="-686696454#0"/>
    <trip id="veh198" type="veh_passenger" depart="132.90" departLane="best" from="-24583587" to="311783752#1"/>
    <trip id="veh199" type="veh_passenger" depart="133.57" departLane="best" from="552890996#1" to="24577095#0"/>
    <trip id="veh200" type="veh_passenger" depart="134.24" departLane="best" departSpeed="max" from="70258948#0" to="656933872"/>
    <trip id="veh201" type="veh_passenger" depart="134.91" departLane="best" departSpeed="max" from="570413597#0" to="112102196#4"/>
    <trip id="veh202" type="veh_passenger" depart="135.58" departLane="best" from="-717531847#0" to="-112102230#1"/>
    <trip id="veh203" type="veh_passenger" depart="136.25" departLane="best" from="112102217#0" to="28103634#5"/>
    <trip id="veh204" type="veh_passenger" depart="136.92" departLane="best" from="710645770" to="-24577417#1"/>
    <trip id="veh205" type="veh_passenger" depart="137.59" departLane="best" from="24583593#4" to="44831985#8-AddedOnRampEdge"/>
    <trip id="veh206" type="veh_passenger" depart="138.27" departLane="best" from="-717531841" to="570427355"/>
    <trip id="veh207" type="veh_passenger" depart="138.94" departLane="best" from="296963058#8" to="112102230#1"/>
    <trip id="veh208" type="veh_passenger" depart="139.61" departLane="best" departSpeed="max" from="563679836#0" to="-112102196#5"/>
    <trip id="veh210" type="veh_passenger" depart="140.95" departLane="best" from="-292194566#4" to="24583593#0"/>
    <trip id="veh211" type="veh_passenger" depart="141.62" departLane="best" from="-686696454#0" to="77349485#1"/>
    <trip id="veh212" type="veh_passenger" depart="142.29" departLane="best" from="370741568#0" to="-169196737#5"/>
    <trip id="veh213" type="veh_passenger" depart="142.96" departLane="best" from="112102221#4" to="712992071"/>
    <trip id="veh214" type="veh_passenger" depart="143.64" departLane="best" from="28103660#2-AddedOnRampEdge" to="695555518"/>
    <trip id="veh215" type="veh_passenger" depart="144.31" departLane="best" from="570413596#1" to="80950003#1"/>
    <trip id="veh216" type="veh_passenger" depart="144.98" departLane="best" from="447141132#1" to="760817627"/>
    <trip id="veh217" type="veh_passenger" depart="145.65" departLane="best" from="717046638#1" to="447141135#4"/>
    <trip id="veh218" type="veh_passenger" depart="146.32" departLane="best" from="582461173" to="292194566#6"/>
    <trip id="veh220" type="veh_passenger" depart="147.66" departLane="best" from="717531844#0" to="596373338#5"/>
    <trip id="veh221" type="veh_passenger" depart="148.33" departLane="best" from="28121291#0" to="112102241#8"/>
    <trip id="veh222" type="veh_passenger" depart="149.00" departLane="best" from="112102221#0" to="537797267#1"/>
    <trip id="veh223" type="veh_passenger" depart="149.68" departLane="best" from="663858577" to="359757123#0"/>
    <trip id="veh224" type="veh_passenger" depart="150.35" departLane="best" from="542802207#0" to="130987222#3-AddedOffRampEdge"/>
    <trip id="veh225" type="veh_passenger" depart="151.02" departLane="best" from="-24577418#2" to="169196737#9"/>
    <trip id="veh226" type="veh_passenger" depart="151.69" departLane="best" from="112102244#4" to="24563436#0"/>
    <trip id="veh227" type="veh_passenger" depart="152.36" departLane="best" from="370947969#3" to="-370909385#0"/>
    <trip id="veh228" type="veh_passenger" depart="153.03" departLane="best" from="112102196#1" to="570427350#4"/>
    <trip id="veh229" type="veh_passenger" depart="153.70" departLane="best" from="581989173#0" to="-24577409#3"/>
    <trip id="veh230" type="veh_passenger" depart="154.37" departLane="best" from="24583584#0" to="370741573#1"/>
    <trip id="veh231" type="veh_passenger" depart="155.05" departLane="best" from="24583769#0" to="-80499789#2"/>
    <trip id="veh232" type="veh_passenger" depart="155.72" departLane="best" departSpeed="max" from="24584375#0" to="729959836"/>
    <trip id="veh233" type="veh_passenger" depart="156.39" departLane="best" from="44257669#1" to="570427352"/>
    <trip id="veh234" type="veh_passenger" depart="157.06" departLane="best" from="712992071" to="677663227#2-AddedOnRampEdge"/>
    <trip id="veh235" type="veh_passenger" depart="157.73" departLane="best" from="24577409#5" to="-112102196#6"/>
    <trip id="veh236" type="veh_passenger" depart="158.40" departLane="best" from="24577361#2" to="656933877#4"/>
    <trip id="veh237" type="veh_passenger" depart="159.07" departLane="best" from="711421332#1" to="763520419#0"/>
    <trip id="veh238" type="veh_passenger" depart="159.74" departLane="best" departSpeed="max" from="24584375#0" to="611866595#0-AddedOffRampEdge"/>
    <trip id="veh240" type="veh_passenger" depart="161.09" departLane="best" from="-80950003#4" to="-80954603#0"/>
    <trip id="veh241" type="veh_passenger" depart="161.76" departLane="best" from="24618002#2" to="-112102237#4"/>
    <trip id="veh242" type="veh_passenger" depart="162.43" departLane="best" from="24577101" to="570413587"/>
    <trip id="veh243" type="veh_passenger" depart="163.10" departLane="best" from="24583337#9" to="-686644352"/>
    <trip id="veh244" type="veh_passenger" depart="163.77" departLane="best" departSpeed="max" from="28121207#0" to="-370902443#1"/>
    <trip id="veh245" type="veh_passenger" depart="164.44" departLane="best" from="48964573#1" to="-112102237#1"/>
    <trip id="veh246" type="veh_passenger" depart="165.11" departLane="best" from="24577418#8" to="370947969#9-AddedOffRampEdge"/>
    <trip id="veh247" type="veh_passenger" depart="165.78" departLane="best" from="-370902452#3" to="27422253#2"/>
    <trip id="veh248" type="veh_passenger" depart="166.46" departLane="best" from="-169196737#10" to="24577390#0"/>
    <trip id="veh249" type="veh_passenger" depart="167.13" departLane="best" from="-777664924" to="24563446"/>
    <trip id="veh250" type="veh_passenger" depart="167.80" departLane="best" departSpeed="max" from="656933877#0" to="24577390#0"/>
    <trip id="veh251" type="veh_passenger" depart="168.47" departLane="best" from="611866595#0" to="709276133#0"/>
    <trip id="veh252" type="veh_passenger" depart="169.14" departLane="best" from="112102221#9" to="-24583587"/>
    <trip id="veh253" type="veh_passenger" depart="169.81" departLane="best" from="-112102221#1" to="370741568#0"/>
    <trip id="veh255" type="veh_passenger" depart="171.15" departLane="best" from="562479736#7" to="680551207"/>
    <trip id="veh256" type="veh_passenger" depart="171.83" departLane="best" from="563679834#0" to="656933877#5"/>
    <trip id="veh257" type="veh_passenger" depart="172.50" departLane="best" from="760817629#0" to="-722082947"/>