<?xml version="1.0" encoding="UTF-8"?>

<!-- generated on 12/30/20 12:42:21 by Eclipse SUMO netconvert Version 1.7.0
<configuration xmlns:xsi="http://www.w3.org/2001/XMLSchema-instance" xsi:noNamespaceSchemaLocation="http://sumo.dlr.de/xsd/netconvertConfiguration.xsd">

    <input>
        <type-files value="C:\Program%20Files%20(x86)\Eclipse\Sumo\data\typemap\osmNetconvert.typ.xml"/>
        <osm-files value="osm_bbox.osm.xml"/>
    </input>

    <output>
        <output-file value="osm.net.xml"/>
        <output.street-names value="true"/>
        <output.original-names value="true"/>
    </output>

    <projection>
        <proj.utm value="true"/>
    </projection>

    <processing>
        <geometry.remove value="true"/>
        <roundabouts.guess value="true"/>
        <lefthand value="true"/>
    </processing>

    <tls_building>
        <tls.discard-simple value="true"/>
        <tls.join value="true"/>
        <tls.guess-signals value="true"/>
        <tls.default-type value="actuated"/>
    </tls_building>

    <ramp_guessing>
        <ramps.guess value="true"/>
    </ramp_guessing>

    <edge_removal>
        <keep-edges.by-vclass value="passenger"/>
    </edge_removal>

    <junctions>
        <junctions.join value="true"/>
        <junctions.corner-detail value="5"/>
    </junctions>

    <report>
        <verbose value="true"/>
        <aggregate-warnings value="5"/>
    </report>

</configuration>
-->

<net version="1.6" junctionCornerDetail="5" lefthand="true" limitTurnSpeed="5.50" xmlns:xsi="http://www.w3.org/2001/XMLSchema-instance" xsi:noNamespaceSchemaLocation="http://sumo.dlr.de/xsd/net_file.xsd">

    <location netOffset="-715162.75,-3164834.97" convBoundary="0.00,-0.00,5299.74,3841.56" origBoundary="77.159519,28.566854,77.260806,28.673344" projParameter="+proj=utm +zone=43 +ellps=WGS84 +datum=WGS84 +units=m +no_defs"/>

    <type id="highway.bridleway" priority="1" numLanes="1" speed="2.78" allow="pedestrian" oneway="1" width="2.00"/>
    <type id="highway.bus_guideway" priority="1" numLanes="1" speed="27.78" allow="bus" oneway="1"/>
    <type id="highway.cycleway" priority="1" numLanes="1" speed="8.33" allow="bicycle" oneway="0" width="1.00"/>
    <type id="highway.footway" priority="1" numLanes="1" speed="2.78" allow="pedestrian" oneway="1" width="2.00"/>
    <type id="highway.ford" priority="1" numLanes="1" speed="2.78" allow="army" oneway="0"/>
    <type id="highway.living_street" priority="2" numLanes="1" speed="2.78" disallow="tram rail_urban rail rail_electric rail_fast ship" oneway="0"/>
    <type id="highway.motorway" priority="14" numLanes="2" speed="39.44" allow="private emergency authority army vip passenger hov taxi bus coach delivery truck trailer motorcycle evehicle custom1 custom2" oneway="1"/>
    <type id="highway.motorway_link" priority="9" numLanes="1" speed="22.22" allow="private emergency authority army vip passenger hov taxi bus coach delivery truck trailer motorcycle evehicle custom1 custom2" oneway="1"/>
    <type id="highway.path" priority="1" numLanes="1" speed="2.78" allow="pedestrian bicycle" oneway="1" width="2.00"/>
    <type id="highway.pedestrian" priority="1" numLanes="1" speed="2.78" allow="pedestrian" oneway="1" width="2.00"/>
    <type id="highway.primary" priority="12" numLanes="2" speed="27.78" disallow="tram rail_urban rail rail_electric rail_fast ship" oneway="0"/>
    <type id="highway.primary_link" priority="7" numLanes="1" speed="22.22" disallow="tram rail_urban rail rail_electric rail_fast ship" oneway="0"/>
    <type id="highway.raceway" priority="15" numLanes="2" speed="83.33" allow="vip" oneway="0"/>
    <type id="highway.residential" priority="3" numLanes="1" speed="13.89" disallow="tram rail_urban rail rail_electric rail_fast ship" oneway="0"/>
    <type id="highway.secondary" priority="11" numLanes="1" speed="27.78" disallow="tram rail_urban rail rail_electric rail_fast ship" oneway="0"/>
    <type id="highway.secondary_link" priority="6" numLanes="1" speed="22.22" disallow="tram rail_urban rail rail_electric rail_fast ship" oneway="0"/>
    <type id="highway.service" priority="1" numLanes="1" speed="5.56" allow="pedestrian delivery bicycle" oneway="0"/>
    <type id="highway.stairs" priority="1" numLanes="1" speed="1.39" allow="pedestrian" oneway="1" width="2.00"/>
    <type id="highway.step" priority="1" numLanes="1" speed="1.39" allow="pedestrian" oneway="1" width="2.00"/>
    <type id="highway.steps" priority="1" numLanes="1" speed="1.39" allow="pedestrian" oneway="1" width="2.00"/>
    <type id="highway.tertiary" priority="10" numLanes="1" speed="22.22" disallow="tram rail_urban rail rail_electric rail_fast ship" oneway="0"/>
    <type id="highway.tertiary_link" priority="5" numLanes="1" speed="22.22" disallow="tram rail_urban rail rail_electric rail_fast ship" oneway="0"/>
    <type id="highway.track" priority="1" numLanes="1" speed="5.56" allow="pedestrian motorcycle moped bicycle" oneway="0"/>
    <type id="highway.trunk" priority="13" numLanes="2" speed="27.78" disallow="pedestrian bicycle tram rail_urban rail rail_electric rail_fast ship" oneway="0"/>
    <type id="highway.trunk_link" priority="8" numLanes="1" speed="22.22" disallow="pedestrian bicycle tram rail_urban rail rail_electric rail_fast ship" oneway="0"/>
    <type id="highway.unclassified" priority="4" numLanes="1" speed="13.89" disallow="tram rail_urban rail rail_electric rail_fast ship" oneway="0"/>
    <type id="highway.unsurfaced" priority="1" numLanes="1" speed="8.33" disallow="tram rail_urban rail rail_electric rail_fast ship" oneway="0"/>
    <type id="railway.highspeed" priority="21" numLanes="1" speed="69.44" allow="rail_fast" oneway="1"/>
    <type id="railway.light_rail" priority="19" numLanes="1" speed="27.78" allow="rail_urban" oneway="1"/>
    <type id="railway.preserved" priority="16" numLanes="1" speed="27.78" allow="rail" oneway="1"/>
    <type id="railway.rail" priority="20" numLanes="1" speed="44.44" allow="rail" oneway="1"/>
    <type id="railway.subway" priority="18" numLanes="1" speed="27.78" allow="rail_urban" oneway="1"/>
    <type id="railway.tram" priority="17" numLanes="1" speed="13.89" allow="tram" oneway="1"/>

    <edge id=":1272012891_0" function="internal">
        <lane id=":1272012891_0_0" index="0" disallow="tram rail_urban rail rail_electric rail_fast ship" speed="25.00" length="8.49" shape="4613.49,2251.92 4616.00,2251.72 4617.73,2251.71 4619.44,2251.97 4621.89,2252.55"/>
    </edge>
    <edge id=":1272012891_1" function="internal">
        <lane id=":1272012891_1_0" index="0" disallow="tram rail_urban rail rail_electric rail_fast ship" speed="27.78" length="8.76" shape="4613.20,2248.74 4621.94,2248.29"/>
    </edge>
    <edge id=":1275190679_0" function="internal">
        <lane id=":1275190679_0_0" index="0" disallow="tram rail_urban rail rail_electric rail_fast ship" speed="13.89" length="12.80" shape="3642.56,1390.27 3641.59,1393.54 3640.57,1396.35 3639.36,1399.09 3637.81,1402.13"/>
    </edge>
    <edge id=":1275190679_1" function="internal">
        <lane id=":1275190679_1_0" index="0" disallow="tram rail_urban rail rail_electric rail_fast ship" speed="8.25" length="5.36" shape="3642.56,1390.27 3642.11,1393.79 3642.54,1395.55"/>
    </edge>
    <edge id=":1275190679_2" function="internal">
        <lane id=":1275190679_2_0" index="0" disallow="tram rail_urban rail rail_electric rail_fast ship" speed="3.65" length="2.34" shape="3642.56,1390.27 3643.01,1391.64 3643.68,1392.24"/>
    </edge>
    <edge id=":1275190679_9" function="internal">
        <lane id=":1275190679_9_0" index="0" disallow="tram rail_urban rail rail_electric rail_fast ship" speed="8.25" length="8.03" shape="3642.54,1395.55 3642.84,1396.78 3644.76,1399.23 3647.86,1401.16"/>
    </edge>
    <edge id=":1275190679_10" function="internal">
        <lane id=":1275190679_10_0" index="0" disallow="tram rail_urban rail rail_electric rail_fast ship" speed="3.65" length="2.34" shape="3643.68,1392.24 3644.56,1392.07 3645.65,1391.12"/>
    </edge>
    <edge id=":1275190679_3" function="internal">
        <lane id=":1275190679_3_0" index="0" disallow="tram rail_urban rail rail_electric rail_fast ship" speed="6.79" length="8.78" shape="3649.17,1398.24 3647.12,1396.97 3645.85,1395.36 3645.36,1393.41 3645.65,1391.12"/>
    </edge>
    <edge id=":1275190679_4" function="internal">
        <lane id=":1275190679_4_0" index="0" disallow="tram rail_urban rail rail_electric rail_fast ship" speed="8.02" length="13.50" shape="3649.17,1398.24 3645.65,1397.22 3642.58,1397.53 3639.97,1399.16 3637.81,1402.13"/>
    </edge>
    <edge id=":1275190679_5" function="internal">
        <lane id=":1275190679_5_0" index="0" disallow="tram rail_urban rail rail_electric rail_fast ship" speed="3.65" length="4.67" shape="3649.17,1398.24 3647.75,1398.48 3647.06,1399.04 3647.10,1399.94 3647.86,1401.16"/>
    </edge>
    <edge id=":1275190679_6" function="internal">
        <lane id=":1275190679_6_0" index="0" disallow="tram rail_urban rail rail_electric rail_fast ship" speed="6.52" length="8.59" shape="3640.63,1403.63 3642.01,1401.75 3643.67,1400.71 3645.62,1400.51 3647.86,1401.16"/>
    </edge>
    <edge id=":1275190679_7" function="internal">
        <lane id=":1275190679_7_0" index="0" disallow="tram rail_urban rail rail_electric rail_fast ship" speed="13.89" length="13.51" shape="3640.63,1403.63 3642.22,1400.49 3643.52,1397.53 3644.63,1394.49 3645.65,1391.12"/>
    </edge>
    <edge id=":1275190679_8" function="internal">
        <lane id=":1275190679_8_0" index="0" disallow="tram rail_urban rail rail_electric rail_fast ship" speed="3.65" length="2.34" shape="3640.63,1403.63 3640.49,1402.20 3639.97,1401.47"/>
    </edge>
    <edge id=":1275190679_11" function="internal">
        <lane id=":1275190679_11_0" index="0" disallow="tram rail_urban rail rail_electric rail_fast ship" speed="3.65" length="2.34" shape="3639.97,1401.47 3639.08,1401.45 3637.81,1402.13"/>
    </edge>
    <edge id=":1275190683_0" function="internal">
        <lane id=":1275190683_0_0" index="0" disallow="tram rail_urban rail rail_electric rail_fast ship" speed="13.89" length="14.40" shape="2898.72,1391.67 2898.47,1377.27"/>
    </edge>
    <edge id=":1275190683_1" function="internal">
        <lane id=":1275190683_1_0" index="0" disallow="tram rail_urban rail rail_electric rail_fast ship" speed="7.96" length="5.93" shape="2898.72,1391.67 2898.10,1387.80 2897.02,1386.10"/>
    </edge>
    <edge id=":1275190683_2" function="internal">
        <lane id=":1275190683_2_0" index="0" disallow="tram rail_urban rail rail_electric rail_fast ship" speed="3.65" length="2.34" shape="2898.72,1391.67 2897.90,1390.49 2897.09,1390.10"/>
    </edge>
    <edge id=":1275190683_9" function="internal">
        <lane id=":1275190683_9_0" index="0" disallow="tram rail_urban rail rail_electric rail_fast ship" speed="7.96" length="8.36" shape="2897.02,1386.10 2896.38,1385.08 2893.56,1383.52 2889.65,1383.13"/>
    </edge>
    <edge id=":1275190683_10" function="internal">
        <lane id=":1275190683_10_0" index="0" disallow="tram rail_urban rail rail_electric rail_fast ship" speed="3.65" length="2.34" shape="2897.09,1390.10 2896.30,1390.52 2895.52,1391.73"/>
    </edge>
    <edge id=":1275190683_3" function="internal">
        <lane id=":1275190683_3_0" index="0" disallow="tram rail_urban rail rail_electric rail_fast ship" speed="6.45" length="9.03" shape="2889.79,1386.33 2892.26,1386.58 2894.04,1387.56 2895.13,1389.28 2895.52,1391.73"/>
    </edge>
    <edge id=":1275190683_4" function="internal">
        <lane id=":1275190683_4_0" index="0" disallow="tram rail_urban rail rail_electric rail_fast ship" speed="8.08" length="14.23" shape="2889.79,1386.33 2893.64,1385.62 2896.38,1383.88 2897.98,1381.10 2898.47,1377.27"/>
    </edge>
    <edge id=":1275190683_5" function="internal">
        <lane id=":1275190683_5_0" index="0" disallow="tram rail_urban rail rail_electric rail_fast ship" speed="3.65" length="4.67" shape="2889.79,1386.33 2890.95,1385.48 2891.32,1384.66 2890.89,1383.88 2889.65,1383.13"/>
    </edge>
    <edge id=":1275190683_6" function="internal">
        <lane id=":1275190683_6_0" index="0" disallow="tram rail_urban rail rail_electric rail_fast ship" speed="6.61" length="9.16" shape="2895.27,1377.33 2894.96,1379.78 2893.91,1381.56 2892.15,1382.68 2889.65,1383.13"/>
    </edge>
    <edge id=":1275190683_7" function="internal">
        <lane id=":1275190683_7_0" index="0" disallow="tram rail_urban rail rail_electric rail_fast ship" speed="13.89" length="14.40" shape="2895.27,1377.33 2895.52,1391.73"/>
    </edge>
    <edge id=":1275190683_8" function="internal">
        <lane id=":1275190683_8_0" index="0" disallow="tram rail_urban rail rail_electric rail_fast ship" speed="3.65" length="2.34" shape="2895.27,1377.33 2896.09,1378.52 2896.90,1378.90"/>
    </edge>
    <edge id=":1275190683_11" function="internal">
        <lane id=":1275190683_11_0" index="0" disallow="tram rail_urban rail rail_electric rail_fast ship" speed="3.65" length="2.34" shape="2896.90,1378.90 2897.69,1378.49 2898.47,1377.27"/>
    </edge>
    <edge id=":1275190686_0" function="internal">
        <lane id=":1275190686_0_0" index="0" disallow="tram rail_urban rail rail_electric rail_fast ship" speed="6.42" length="9.04" shape="3892.94,1124.57 3892.39,1127.00 3891.20,1128.64 3889.36,1129.49 3886.87,1129.55"/>
    </edge>
    <edge id=":1275190686_1" function="internal">
        <lane id=":1275190686_1_0" index="0" disallow="tram rail_urban rail rail_electric rail_fast ship" speed="13.89" length="14.41" shape="3892.94,1124.57 3891.83,1138.93"/>
    </edge>
    <edge id=":1275190686_2" function="internal">
        <lane id=":1275190686_2_0" index="0" disallow="tram rail_urban rail rail_electric rail_fast ship" speed="3.65" length="2.34" shape="3892.94,1124.57 3893.64,1125.83 3894.41,1126.29"/>
    </edge>
    <edge id=":1275190686_9" function="internal">
        <lane id=":1275190686_9_0" index="0" disallow="tram rail_urban rail rail_electric rail_fast ship" speed="3.65" length="2.34" shape="3894.41,1126.29 3895.24,1125.95 3896.13,1124.81"/>
    </edge>
    <edge id=":1275190686_3" function="internal">
        <lane id=":1275190686_3_0" index="0" disallow="tram rail_urban rail rail_electric rail_fast ship" speed="13.89" length="14.41" shape="3895.02,1139.18 3896.13,1124.81"/>
    </edge>
    <edge id=":1275190686_4" function="internal">
        <lane id=":1275190686_4_0" index="0" disallow="tram rail_urban rail rail_electric rail_fast ship" speed="8.14" length="5.85" shape="3895.02,1139.18 3894.76,1135.36 3893.85,1133.55"/>
    </edge>
    <edge id=":1275190686_5" function="internal">
        <lane id=":1275190686_5_0" index="0" disallow="tram rail_urban rail rail_electric rail_fast ship" speed="3.65" length="2.34" shape="3895.02,1139.18 3894.31,1137.92 3893.55,1137.46"/>
    </edge>
    <edge id=":1275190686_10" function="internal">
        <lane id=":1275190686_10_0" index="0" disallow="tram rail_urban rail rail_electric rail_fast ship" speed="8.14" length="8.40" shape="3893.85,1133.55 3893.31,1132.48 3890.68,1130.55 3886.87,1129.55"/>
    </edge>
    <edge id=":1275190686_11" function="internal">
        <lane id=":1275190686_11_0" index="0" disallow="tram rail_urban rail rail_electric rail_fast ship" speed="3.65" length="2.34" shape="3893.55,1137.46 3892.72,1137.80 3891.83,1138.93"/>
    </edge>
    <edge id=":1275190686_6" function="internal">
        <lane id=":1275190686_6_0" index="0" disallow="tram rail_urban rail rail_electric rail_fast ship" speed="6.68" length="9.25" shape="3886.49,1132.73 3888.99,1133.37 3890.71,1134.62 3891.66,1136.48 3891.83,1138.93"/>
    </edge>
    <edge id=":1275190686_7" function="internal">
        <lane id=":1275190686_7_0" index="0" disallow="tram rail_urban rail rail_electric rail_fast ship" speed="7.93" length="14.36" shape="3886.49,1132.73 3890.45,1132.63 3893.37,1131.28 3895.26,1128.68 3896.13,1124.81"/>
    </edge>
    <edge id=":1275190686_8" function="internal">
        <lane id=":1275190686_8_0" index="0" disallow="tram rail_urban rail rail_electric rail_fast ship" speed="3.65" length="4.67" shape="3886.49,1132.73 3887.78,1132.07 3888.27,1131.33 3887.97,1130.48 3886.87,1129.55"/>
    </edge>
    <edge id=":1275190687_0" function="internal">
        <lane id=":1275190687_0_0" index="0" disallow="tram rail_urban rail rail_electric rail_fast ship" speed="6.49" length="9.03" shape="2949.67,1532.09 2952.14,1532.34 2953.92,1533.32 2955.03,1535.03 2955.46,1537.47"/>
    </edge>
    <edge id=":1275190687_1" function="internal">
        <lane id=":1275190687_1_0" index="0" disallow="tram rail_urban rail rail_electric rail_fast ship" speed="3.65" length="4.67" shape="2949.67,1532.09 2950.84,1531.24 2951.21,1530.42 2950.77,1529.64 2949.54,1528.89"/>
    </edge>
    <edge id=":1275190687_2" function="internal">
        <lane id=":1275190687_2_0" index="0" disallow="tram rail_urban rail rail_electric rail_fast ship" speed="6.52" length="9.06" shape="2954.95,1523.07 2954.70,1525.53 2953.71,1527.32 2951.99,1528.44 2949.54,1528.89"/>
    </edge>
    <edge id=":1275190687_3" function="internal">
        <lane id=":1275190687_3_0" index="0" disallow="tram rail_urban rail rail_electric rail_fast ship" speed="27.78" length="14.41" shape="2954.95,1523.07 2955.46,1537.47"/>
    </edge>
    <edge id=":1275190691_0" function="internal">
        <lane id=":1275190691_0_0" index="0" disallow="tram rail_urban rail rail_electric rail_fast ship" speed="6.55" length="9.09" shape="2818.36,1386.15 2815.87,1385.91 2814.05,1384.94 2812.90,1383.24 2812.41,1380.82"/>
    </edge>
    <edge id=":1275190691_1" function="internal">
        <lane id=":1275190691_1_0" index="0" disallow="tram rail_urban rail rail_electric rail_fast ship" speed="7.98" length="14.23" shape="2818.36,1386.15 2814.52,1386.87 2811.84,1388.64 2810.33,1391.47 2809.98,1395.36"/>
    </edge>
    <edge id=":1275190691_2" function="internal">
        <lane id=":1275190691_2_0" index="0" disallow="tram rail_urban rail rail_electric rail_fast ship" speed="3.65" length="4.67" shape="2818.36,1386.15 2817.19,1387.00 2816.83,1387.82 2817.26,1388.60 2818.49,1389.35"/>
    </edge>
    <edge id=":1275190691_3" function="internal">
        <lane id=":1275190691_3_0" index="0" disallow="tram rail_urban rail rail_electric rail_fast ship" speed="6.48" length="9.03" shape="2813.18,1395.20 2813.40,1392.73 2814.36,1390.93 2816.06,1389.80 2818.49,1389.35"/>
    </edge>
    <edge id=":1275190691_4" function="internal">
        <lane id=":1275190691_4_0" index="0" disallow="tram rail_urban rail rail_electric rail_fast ship" speed="13.89" length="14.40" shape="2813.18,1395.20 2812.41,1380.82"/>
    </edge>
    <edge id=":1275190691_5" function="internal">
        <lane id=":1275190691_5_0" index="0" disallow="tram rail_urban rail rail_electric rail_fast ship" speed="3.65" length="2.34" shape="2813.18,1395.20 2812.31,1394.04 2811.49,1393.68"/>
    </edge>
    <edge id=":1275190691_9" function="internal">
        <lane id=":1275190691_9_0" index="0" disallow="tram rail_urban rail rail_electric rail_fast ship" speed="3.65" length="2.34" shape="2811.49,1393.68 2810.72,1394.12 2809.98,1395.36"/>
    </edge>
    <edge id=":1275190691_6" function="internal">
        <lane id=":1275190691_6_0" index="0" disallow="tram rail_urban rail rail_electric rail_fast ship" speed="13.89" length="14.40" shape="2809.22,1380.99 2809.98,1395.36"/>
    </edge>
    <edge id=":1275190691_7" function="internal">
        <lane id=":1275190691_7_0" index="0" disallow="tram rail_urban rail rail_electric rail_fast ship" speed="8.04" length="5.91" shape="2809.22,1380.99 2809.97,1384.78 2811.11,1386.47"/>
    </edge>
    <edge id=":1275190691_8" function="internal">
        <lane id=":1275190691_8_0" index="0" disallow="tram rail_urban rail rail_electric rail_fast ship" speed="3.65" length="2.34" shape="2809.22,1380.99 2810.08,1382.14 2810.90,1382.50"/>
    </edge>
    <edge id=":1275190691_10" function="internal">
        <lane id=":1275190691_10_0" index="0" disallow="tram rail_urban rail rail_electric rail_fast ship" speed="8.04" length="8.30" shape="2811.11,1386.47 2811.77,1387.44 2814.61,1388.97 2818.49,1389.35"/>
    </edge>
    <edge id=":1275190691_11" function="internal">
        <lane id=":1275190691_11_0" index="0" disallow="tram rail_urban rail rail_electric rail_fast ship" speed="3.65" length="2.34" shape="2810.90,1382.50 2811.68,1382.06 2812.41,1380.82"/>
    </edge>
    <edge id=":1275190693_0" function="internal">
        <lane id=":1275190693_0_0" index="0" disallow="tram rail_urban rail rail_electric rail_fast ship" speed="6.54" length="9.08" shape="2820.92,1434.68 2818.43,1434.44 2816.62,1433.47 2815.47,1431.78 2814.98,1429.35"/>
    </edge>
    <edge id=":1275190693_1" function="internal">
        <lane id=":1275190693_1_0" index="0" disallow="tram rail_urban rail rail_electric rail_fast ship" speed="7.98" length="14.23" shape="2820.92,1434.68 2817.08,1435.40 2814.41,1437.18 2812.90,1440.01 2812.55,1443.90"/>
    </edge>
    <edge id=":1275190693_2" function="internal">
        <lane id=":1275190693_2_0" index="0" disallow="tram rail_urban rail rail_electric rail_fast ship" speed="3.65" length="4.67" shape="2820.92,1434.68 2819.75,1435.53 2819.39,1436.35 2819.82,1437.13 2821.06,1437.88"/>
    </edge>
    <edge id=":1275190693_3" function="internal">
        <lane id=":1275190693_3_0" index="0" disallow="tram rail_urban rail rail_electric rail_fast ship" speed="6.49" length="9.03" shape="2815.75,1443.73 2815.97,1441.26 2816.93,1439.47 2818.62,1438.34 2821.06,1437.88"/>
    </edge>
    <edge id=":1275190693_4" function="internal">
        <lane id=":1275190693_4_0" index="0" disallow="tram rail_urban rail rail_electric rail_fast ship" speed="13.89" length="14.40" shape="2815.75,1443.73 2814.98,1429.35"/>
    </edge>
    <edge id=":1275190693_5" function="internal">
        <lane id=":1275190693_5_0" index="0" disallow="tram rail_urban rail rail_electric rail_fast ship" speed="3.65" length="2.34" shape="2815.75,1443.73 2814.88,1442.58 2814.06,1442.22"/>
    </edge>
    <edge id=":1275190693_9" function="internal">
        <lane id=":1275190693_9_0" index="0" disallow="tram rail_urban rail rail_electric rail_fast ship" speed="3.65" length="2.34" shape="2814.06,1442.22 2813.29,1442.66 2812.55,1443.90"/>
    </edge>
    <edge id=":1275190693_6" function="internal">
        <lane id=":1275190693_6_0" index="0" disallow="tram rail_urban rail rail_electric rail_fast ship" speed="13.89" length="14.40" shape="2811.79,1429.52 2812.55,1443.90"/>
    </edge>
    <edge id=":1275190693_7" function="internal">
        <lane id=":1275190693_7_0" index="0" disallow="tram rail_urban rail rail_electric rail_fast ship" speed="8.03" length="5.91" shape="2811.79,1429.52 2812.54,1433.32 2813.68,1435.01"/>
    </edge>
    <edge id=":1275190693_8" function="internal">
        <lane id=":1275190693_8_0" index="0" disallow="tram rail_urban rail rail_electric rail_fast ship" speed="3.65" length="2.34" shape="2811.79,1429.52 2812.65,1430.68 2813.47,1431.03"/>
    </edge>
    <edge id=":1275190693_10" function="internal">
        <lane id=":1275190693_10_0" index="0" disallow="tram rail_urban rail rail_electric rail_fast ship" speed="8.03" length="8.29" shape="2813.68,1435.01 2814.34,1435.98 2817.18,1437.50 2821.06,1437.88"/>
    </edge>
    <edge id=":1275190693_11" function="internal">
        <lane id=":1275190693_11_0" index="0" disallow="tram rail_urban rail rail_electric rail_fast ship" speed="3.65" length="2.34" shape="2813.47,1431.03 2814.25,1430.59 2814.98,1429.35"/>
    </edge>
    <edge id=":1275190695_0" function="internal">
        <lane id=":1275190695_0_0" index="0" disallow="tram rail_urban rail rail_electric rail_fast ship" speed="13.89" length="15.30" shape="3693.05,1113.84 3689.49,1112.53 3685.82,1111.36 3682.11,1110.31 3678.42,1109.39"/>
    </edge>
    <edge id=":1275190695_1" function="internal">
        <lane id=":1275190695_1_0" index="0" disallow="tram rail_urban rail rail_electric rail_fast ship" speed="8.75" length="5.91" shape="3693.05,1113.84 3689.45,1113.07 3687.27,1113.49"/>
    </edge>
    <edge id=":1275190695_2" function="internal">
        <lane id=":1275190695_2_0" index="0" disallow="tram rail_urban rail rail_electric rail_fast ship" speed="3.65" length="2.34" shape="3693.05,1113.84 3691.64,1114.14 3690.97,1114.74"/>
    </edge>
    <edge id=":1275190695_9" function="internal">
        <lane id=":1275190695_9_0" index="0" disallow="tram rail_urban rail rail_electric rail_fast ship" speed="8.75" length="9.11" shape="3687.27,1113.49 3686.17,1113.71 3683.19,1115.76 3680.53,1119.23"/>
    </edge>
    <edge id=":1275190695_10" function="internal">
        <lane id=":1275190695_10_0" index="0" disallow="tram rail_urban rail rail_electric rail_fast ship" speed="3.65" length="2.34" shape="3690.97,1114.74 3691.05,1115.63 3691.88,1116.82"/>
    </edge>
    <edge id=":1275190695_3" function="internal">
        <lane id=":1275190695_3_0" index="0" disallow="tram rail_urban rail rail_electric rail_fast ship" speed="7.39" length="10.45" shape="3683.28,1120.88 3685.17,1118.36 3687.23,1116.85 3689.47,1116.33 3691.88,1116.82"/>
    </edge>
    <edge id=":1275190695_4" function="internal">
        <lane id=":1275190695_4_0" index="0" disallow="tram rail_urban rail rail_electric rail_fast ship" speed="7.56" length="15.53" shape="3683.28,1120.88 3685.01,1116.76 3684.78,1113.47 3682.59,1111.01 3678.42,1109.39"/>
    </edge>
    <edge id=":1275190695_5" function="internal">
        <lane id=":1275190695_5_0" index="0" disallow="tram rail_urban rail rail_electric rail_fast ship" speed="3.65" length="4.67" shape="3683.28,1120.88 3683.21,1119.44 3682.73,1118.68 3681.84,1118.61 3680.53,1119.23"/>
    </edge>
    <edge id=":1275190695_6" function="internal">
        <lane id=":1275190695_6_0" index="0" disallow="tram rail_urban rail rail_electric rail_fast ship" speed="5.94" length="9.09" shape="3677.69,1112.51 3680.13,1113.46 3681.42,1114.89 3681.55,1116.82 3680.53,1119.23"/>
    </edge>
    <edge id=":1275190695_7" function="internal">
        <lane id=":1275190695_7_0" index="0" disallow="tram rail_urban rail rail_electric rail_fast ship" speed="13.89" length="14.84" shape="3677.69,1112.51 3681.31,1113.40 3684.86,1114.40 3688.38,1115.53 3691.88,1116.82"/>
    </edge>
    <edge id=":1275190695_8" function="internal">
        <lane id=":1275190695_8_0" index="0" disallow="tram rail_urban rail rail_electric rail_fast ship" speed="3.65" length="2.34" shape="3677.69,1112.51 3679.04,1112.00 3679.61,1111.31"/>
    </edge>
    <edge id=":1275190695_11" function="internal">
        <lane id=":1275190695_11_0" index="0" disallow="tram rail_urban rail rail_electric rail_fast ship" speed="3.65" length="2.34" shape="3679.61,1111.31 3679.41,1110.44 3678.42,1109.39"/>
    </edge>
    <edge id=":1275190697_0" function="internal">
        <lane id=":1275190697_0_0" index="0" disallow="tram rail_urban rail rail_electric rail_fast ship" speed="3.65" length="4.67" shape="3870.06,846.52 3869.89,845.08 3869.36,844.36 3868.47,844.36 3867.21,845.06"/>
    </edge>
    <edge id=":1275190699_0" function="internal">
        <lane id=":1275190699_0_0" index="0" disallow="tram rail_urban rail rail_electric rail_fast ship" speed="6.53" length="8.37" shape="3723.88,1426.22 3722.49,1428.00 3720.83,1428.98 3718.92,1429.15 3716.74,1428.52"/>
    </edge>
    <edge id=":1275190699_1" function="internal">
        <lane id=":1275190699_1_0" index="0" disallow="tram rail_urban rail rail_electric rail_fast ship" speed="8.56" length="12.92" shape="3723.88,1426.22 3722.51,1429.46 3722.25,1432.52 3723.09,1435.39 3725.05,1438.08"/>
    </edge>
    <edge id=":1275190699_2" function="internal">
        <lane id=":1275190699_2_0" index="0" disallow="tram rail_urban rail rail_electric rail_fast ship" speed="3.65" length="4.67" shape="3723.88,1426.22 3723.97,1427.65 3724.46,1428.40 3725.36,1428.46 3726.65,1427.82"/>
    </edge>
    <edge id=":1275190699_3" function="internal">
        <lane id=":1275190699_3_0" index="0" disallow="tram rail_urban rail rail_electric rail_fast ship" speed="7.14" length="8.74" shape="3727.35,1435.86 3726.05,1434.06 3725.50,1432.12 3725.70,1430.04 3726.65,1427.82"/>
    </edge>
    <edge id=":1275190699_4" function="internal">
        <lane id=":1275190699_4_0" index="0" disallow="tram rail_urban rail rail_electric rail_fast ship" speed="13.89" length="12.99" shape="3727.35,1435.86 3724.87,1433.48 3722.45,1431.61 3719.83,1430.03 3716.74,1428.52"/>
    </edge>
    <edge id=":1275190699_5" function="internal">
        <lane id=":1275190699_5_0" index="0" disallow="tram rail_urban rail rail_electric rail_fast ship" speed="3.65" length="2.34" shape="3727.35,1435.86 3725.94,1435.55 3725.09,1435.82"/>
    </edge>
    <edge id=":1275190699_9" function="internal">
        <lane id=":1275190699_9_0" index="0" disallow="tram rail_urban rail rail_electric rail_fast ship" speed="3.65" length="2.34" shape="3725.09,1435.82 3724.79,1436.66 3725.05,1438.08"/>
    </edge>
    <edge id=":1275190699_6" function="internal">
        <lane id=":1275190699_6_0" index="0" disallow="tram rail_urban rail rail_electric rail_fast ship" speed="13.89" length="11.79" shape="3715.43,1431.44 3718.37,1432.84 3720.65,1434.18 3722.73,1435.82 3725.05,1438.08"/>
    </edge>
    <edge id=":1275190699_7" function="internal">