<?xml version="1.0" encoding="UTF-8"?>

<!-- generated on 12/30/20 12:42:23 by Eclipse SUMO polyconvert Version 1.7.0
<configuration xmlns:xsi="http://www.w3.org/2001/XMLSchema-instance" xsi:noNamespaceSchemaLocation="http://sumo.dlr.de/xsd/polyconvertConfiguration.xsd">

    <input>
        <net-file value="osm.net.xml"/>
        <osm-files value="osm_bbox.osm.xml"/>
        <osm.keep-full-type value="true"/>
        <type-file value="C:\Program%20Files%20(x86)\Eclipse\Sumo\data\typemap\osmPolyconvert.typ.xml"/>
    </input>

    <output>
        <output-file value="osm.poly.xml"/>
    </output>

    <processing>
        <poi-layer-offset value="5"/>
    </processing>

    <report>
        <verbose value="true"/>
    </report>

</configuration>
-->

<additional xmlns:xsi="http://www.w3.org/2001/XMLSchema-instance" xsi:noNamespaceSchemaLocation="http://sumo.dlr.de/xsd/additional_file.xsd">
    <location netOffset="-715162.75,-3164834.97" convBoundary="-4128.09,-6882.66,10402.01,8883.06" origBoundary="77.159519,28.528856,77.305317,28.673344" projParameter="+proj=utm +zone=43 +ellps=WGS84 +datum=WGS84 +units=m +no_defs"/>

    <poly id="111696903" type="building.yes" color="255,230,230" fill="1" layer="-1.00" shape="471.917041,2933.850454 474.583133,2987.659357 470.406992,2986.540160 457.407623,2994.393696 452.376999,2996.640206 408.456045,2973.645507 400.822911,2989.170327 443.702126,3011.890791 442.069997,3014.987152 443.879694,3016.583767 439.246946,3025.899888 450.685394,3031.598827 459.681995,3015.877452 462.436846,3020.329717 476.299963,3022.924769 488.238406,3015.838842 492.170469,3001.554024 486.300167,2992.576308 493.447924,2989.049547 491.094183,2933.162084 471.917041,2933.850454"/>
    <poly id="111697092" type="leisure.park" color="207,245,201" fill="1" layer="-2.00" shape="499.278053,2762.122345 506.960365,2767.807457 516.135478,2770.526691 525.694048,2769.960238 534.480250,2766.186554 541.439087,2759.651811 545.724568,2751.138645 546.828690,2741.668747 544.612617,2732.403665 539.329719,2724.456755 531.647390,2718.771623 522.482222,2716.041476 512.923609,2716.607934 504.137174,2720.392720 497.178135,2726.938567 492.892888,2735.440667 491.788810,2744.910567 494.014701,2754.175816 499.278053,2762.122345"/>
    <poly id="111697834" type="building.yes" color="255,230,230" fill="1" layer="-1.00" shape="719.812832,2795.584043 714.291719,2794.717094 707.670675,2793.020501 699.287597,2789.794659 692.391053,2786.064107 687.376848,2782.645486 680.502075,2776.675815 677.578647,2773.406672 682.349954,2769.847220 676.836708,2762.195328 687.993171,2755.095138 691.982486,2752.031242 695.194141,2748.697992 697.613650,2745.350115 699.001272,2741.196023 700.120094,2737.824129 706.837711,2737.471444 707.851910,2740.295128 709.426206,2742.985026 712.279540,2746.341577 715.229938,2748.679939 719.387730,2750.796689 723.262001,2751.843873 726.609446,2752.282644 729.951865,2751.934161 732.548623,2751.172784 737.263438,2758.089318 734.046859,2761.688549 731.348761,2765.818435 730.215762,2770.487219 729.595965,2775.442650 729.763607,2780.667620 730.204918,2785.376565 730.915029,2789.303314 721.194452,2790.165949 719.812832,2795.584043"/>
    <poly id="111697838" type="building.yes" color="255,230,230" fill="1" layer="-1.00" shape="715.452258,2665.122995 711.790522,2665.809277 704.017917,2668.193535 697.271728,2671.151089 690.259565,2675.267847 683.441481,2680.530131 678.020872,2685.873654 673.694361,2691.303900 680.865284,2696.602736 675.270850,2705.003000 685.922453,2710.942619 691.356149,2714.956581 694.960889,2718.415696 697.264937,2721.850794 698.781541,2725.016357 706.723255,2724.597581 707.481126,2722.760084 709.021251,2719.883789 710.797476,2717.466411 713.269693,2714.973192 716.242061,2712.943767 719.094574,2711.577337 722.056461,2710.645311 726.243829,2710.101782 728.747007,2710.170183 730.316617,2710.465254 734.612968,2702.961242 731.267212,2699.251901 728.728342,2694.759215 726.966726,2690.558053 726.031236,2684.531743 726.243279,2673.049756 716.258556,2673.907525 715.452258,2665.122995"/>
    <poly id="111697842" type="building.yes" color="255,230,230" fill="1" layer="-1.00" shape="742.785190,2744.621080 744.436900,2742.589444 745.948261,2740.211527 747.551099,2735.529249 748.022367,2730.670856 747.366522,2725.924687 746.328314,2722.812300 744.815157,2719.990484 742.422855,2717.096997 746.824377,2709.195808 752.853708,2709.562164 757.317933,2709.389623 763.385750,2707.672380 768.426390,2704.894009 776.913752,2699.828909 782.030508,2707.229617 788.617566,2704.413300 791.542144,2712.915455 793.061412,2720.172105 793.783156,2728.234444 793.484748,2736.444239 792.203102,2744.391960 790.872029,2749.190122 789.897260,2752.176634 784.726653,2750.340491 779.750890,2759.140176 769.109154,2753.200647 763.363343,2751.786273 758.130937,2750.647468 753.407387,2750.560222 747.882226,2751.500330 742.785190,2744.621080"/>
    <poly id="111699526" type="building.yes" color="255,230,230" fill="1" layer="-1.00" shape="3946.206455,2537.903869 3973.991336,2553.037339 3988.413888,2526.842952 3979.446141,2521.951780 3988.287998,2505.897198 3963.960405,2492.646775 3955.381786,2508.229564 3960.882597,2511.226376 3946.206455,2537.903869"/>
    <poly id="111699527" type="building.yes" color="255,230,230" fill="1" layer="-1.00" shape="3937.448786,2555.212888 3947.008582,2549.393973 3991.937511,2574.250612 3992.001077,2584.950786 3947.428844,2611.012446 3938.338582,2605.875090 3937.448786,2555.212888"/>
    <poly id="130987225" type="building.yes" color="255,230,230" fill="1" layer="-1.00" shape="3926.967000,3075.840638 3926.547363,3070.566432 3925.382743,3055.976244 3924.414827,3043.939761 3932.297096,3043.045323 3932.932184,3051.439023 3934.026261,3066.138760 3934.714844,3075.331730 3926.967000,3075.840638"/>
    <poly id="138946110" type="landuse.residential" color="235,235,227" fill="1" layer="-3.00" shape="493.736257,3753.266083 460.009839,3748.375302 77.477645,3539.887987 120.586660,3449.682035 116.741523,3373.777873 498.608941,3128.195007 524.395765,3150.467422 548.067198,3686.428866 537.149430,3730.463595 511.227040,3747.413552 493.736257,3753.266083"/>
    <poly id="138946112" type="landuse.residential" color="235,235,227" fill="1" layer="-3.00" shape="2588.110319,2995.542676 2538.274424,3007.198057 2405.347743,2935.030774 2399.858932,2707.458494 2406.930549,2700.184050 2415.867291,2690.993026 2420.113533,2674.153435 2424.264678,2659.795543 2433.679350,2650.158862 2520.862752,2593.642164 2621.128938,2528.633261 2658.497798,2519.883382 2694.490569,2526.707282 2808.868552,2592.744335 2657.745092,2868.486695 2639.444297,2898.767792 2622.265721,2931.830465 2604.486009,2965.658042 2588.110319,2995.542676"/>
    <poly id="138946113" type="landuse.commercial" color="209,209,204" fill="1" layer="-3.00" shape="2709.015852,1876.851879 2766.129163,1966.877586 2770.717147,1993.682580 2762.909820,2015.200924 2650.836591,2078.791654 2575.611162,2064.019800 2390.621230,1964.131618 2385.431036,1929.155688 2361.226259,1910.733555 2346.663770,1618.489475 2433.165394,1616.329058 2510.143797,1851.417991 2608.491276,1939.139356 2709.015852,1876.851879"/>
    <poly id="138946114" type="landuse.commercial" color="209,209,204" fill="1" layer="-3.00" shape="2720.793509,1841.781657 2790.834410,1959.987408 2801.224711,1967.864317 2811.146770,1972.517298 2823.488149,1974.399310 2835.827250,1973.254560 2913.373643,1916.582791 2933.862700,1901.276897 2941.681189,1892.819257 2947.588096,1884.037707 2952.223785,1872.072672 2955.812146,1860.132451 2957.342116,1850.493179 2958.143733,1838.988804 2955.051733,1769.238654 2828.655955,1773.279009 2720.793509,1841.781657"/>
    <poly id="138946115" type="landuse.commercial" color="209,209,204" fill="1" layer="-3.00" shape="856.701017,3369.592810 828.528004,3326.166205 821.688735,3259.009044 840.008219,3215.776485 881.778289,3142.821295 938.114969,3106.921530 1112.960324,3385.540933 1104.322153,3416.745695 1097.326884,3456.440106 1002.157224,3519.736841 952.587488,3431.012535 916.447867,3454.480273 856.701017,3369.592810"/>
    <poly id="138946116" type="landuse.allotments" color="194,194,130" fill="1" layer="-3.00" shape="3362.741695,1883.794728 3445.933470,1813.173447 3499.553886,1699.392471 3587.032371,1752.261389 3636.861825,1912.302955 3564.186636,1935.345818 3439.342873,2004.001210 3412.664489,1958.356341 3375.282204,1894.395399 3362.741695,1883.794728"/>
    <poly id="138946117" type="landuse.commercial" color="209,209,204" fill="1" layer="-3.00" shape="1362.820301,3318.668342 1225.667897,3404.346112 1219.083864,3432.373667 1211.564504,3474.464180 1212.590489,3489.849520 1330.288111,3680.682906 1380.659809,3780.289130 1419.385635,3814.156505 1441.404596,3800.994331 1451.029424,3783.622257 1460.624258,3728.820419 1484.857126,3706.530525 1561.204271,3700.362794 1596.087719,3713.016863 1582.912929,3370.077701 1462.109745,3374.257258 1362.820301,3318.668342"/>
    <poly id="138946118" type="landuse.commercial" color="209,209,204" fill="1" layer="-3.00" shape="1114.321316,2764.782091 1121.016851,2770.382853 1130.545199,2793.131897 1131.788701,2823.211252 1135.556470,2914.603049 1139.623144,3013.095957 1145.352072,3151.798277 1148.668974,3187.182267 1147.147147,3198.052446 1077.569956,3245.291974 1068.082545,3244.672974 881.843970,2937.084825 889.970192,2909.739769 890.425566,2885.102240 1090.663447,2762.282270 1114.321316,2764.782091"/>
    <poly id="138946119" type="landuse.residential" color="235,235,227" fill="1" layer="-3.00" shape="1366.501559,3288.935122 1304.890934,3200.207887 1351.427831,3170.581072 1344.827208,2934.885792 1446.837859,2932.507255 1450.208068,2898.455508 1671.089293,3006.922372 1683.149340,3017.057749 1693.825286,3030.083304 1699.010647,3047.985003 1698.128169,3062.858282 1692.504747,3077.532735 1680.163115,3092.071464 1504.711160,3201.770610 1494.729732,3204.579030 1479.172427,3195.764875 1465.798373,3197.412839 1451.805797,3207.098404 1435.523434,3211.541820 1418.148348,3233.249394 1418.334717,3256.978687 1366.501559,3288.935122"/>
    <poly id="138946120" type="building.public" color="255,230,230" fill="1" layer="-1.00" shape="1311.986383,2692.396279 1183.246459,2694.780362 1173.491186,2681.650432 1166.867358,2675.873581 1158.329177,2671.513682 1156.914691,2638.515331 1155.080193,2595.963467 1152.676129,2540.307547 1155.224655,2536.341277 1174.014883,2537.043748 1305.588512,2532.294965 1311.986383,2692.396279"/>
    <poly id="138946121" type="landuse.residential" color="235,235,227" fill="1" layer="-3.00" shape="1002.157224,3519.736841 698.127266,3713.335764 650.484642,3635.668696 560.796707,3590.885142 571.079423,3575.431513 679.949790,3510.610642 670.794279,3495.740469 635.083760,3437.740159 560.703968,3440.635391 550.914842,3237.478004 613.341065,3236.734490 643.777365,3162.405228 801.368192,3245.894819 821.688735,3259.009044 828.528004,3326.166205 856.701017,3369.592810 916.447867,3454.480273 952.587488,3431.012535 1002.157224,3519.736841"/>
    <poly id="138946122" type="landuse.commercial" color="209,209,204" fill="1" layer="-3.00" shape="2434.278596,3291.692145 2431.438064,3297.138373 2123.064051,3137.515194 2125.904465,3132.068899 2392.863602,2955.065289 2530.542550,3033.119411 2545.228354,3080.822793 2434.278596,3291.692145"/>
    <poly id="138946124" type="landuse.commercial" color="209,209,204" fill="1" layer="-3.00" shape="1579.328941,2930.295610 1698.459364,2993.859818 1713.455975,2997.574982 1733.363333,2992.866578 1748.958122,2980.162159 1757.312276,2964.895364 1758.366456,2946.045087 1753.895985,2841.645853 1628.143090,2841.275379 1579.328941,2930.295610"/>
    <poly id="138946126" type="landuse.residential" color="235,235,227" fill="1" layer="-3.00" shape="2635.625024,3064.889712 2620.035059,3014.275655 2841.723756,2604.122380 2957.200476,2673.064115 2988.376765,2723.016047 3012.360329,3262.600288 2635.625024,3064.889712"/>
    <poly id="138946127" type="landuse.commercial" color="209,209,204" fill="1" layer="-3.00" shape="550.914842,3237.478004 548.866378,3150.231635 563.304002,3134.411190 579.549542,3130.353937 643.777365,3162.405228 613.341065,3236.734490 550.914842,3237.478004"/>
    <poly id="138946129" type="landuse.commercial" color="209,209,204" fill="1" layer="-3.00" shape="1204.088924,2733.116276 1209.810669,2721.558848 1336.441710,2724.213789 1442.981144,2721.974380 1439.894752,2749.157544 1439.663590,2858.779889 1247.540015,2756.637472 1204.088924,2733.116276"/>
    <poly id="138946130" type="landuse.residential" color="235,235,227" fill="1" layer="-3.00" shape="2823.874319,3588.975603 2939.819950,3368.058170 2546.734368,3159.634536 2456.067144,3323.074677 2111.125658,3142.437583 2090.100600,3185.174773 2082.811143,3199.984411 2823.874319,3588.975603"/>
    <poly id="138946132" type="landuse.residential" color="235,235,227" fill="1" layer="-3.00" shape="2665.946211,1757.685624 2419.239703,1352.479175 2430.602740,1334.408288 2584.558202,1259.254946 2675.787537,1427.357046 2783.008934,1682.723921 2665.946211,1757.685624"/>
    <poly id="138946133" type="landuse.residential" color="235,235,227" fill="1" layer="-3.00" shape="1846.607785,3079.893886 1852.269772,3021.526850 2337.922763,2706.893589 2351.098911,2708.036783 2361.168831,2715.231077 2367.765624,2945.861713 2101.169282,3122.307190 2098.604239,3128.202085 2067.780693,3197.055283 1846.607785,3079.893886"/>
    <poly id="138946135" type="landuse.residential" color="235,235,227" fill="1" layer="-3.00" shape="1774.062987,2715.419236 1793.819961,2706.716836 1957.197052,2703.042518 2166.063979,2689.472872 2316.656046,2688.393023 2325.610136,2689.834597 1831.773725,2996.289577 1807.585508,2987.603026 1790.545943,2965.878014 1774.062987,2715.419236"/>
    <poly id="138946136" type="landuse.residential" color="235,235,227" fill="1" layer="-3.00" shape="2950.896759,1754.903360 2826.441376,1759.290376 2674.811385,1381.006678 2748.060952,1350.296740 2811.029507,1505.334331 2815.922815,1544.639968 2946.010590,1538.450743 2950.896759,1754.903360"/>
    <poly id="138946137" type="landuse.commercial" color="209,209,204" fill="1" layer="-3.00" shape="3070.081130,3670.026491 3044.120778,3659.962573 3008.042429,2718.216526 3035.902823,2663.290643 3132.701328,2600.760120 3170.453027,2605.578367 3515.908556,3172.560437 3514.291496,3193.107657 3348.531076,3359.017635 3070.081130,3670.026491"/>
    <poly id="138946138" type="landuse.residential" color="235,235,227" fill="1" layer="-3.00" shape="3227.647530,1803.551401 3116.370626,1749.786469 3044.460514,1753.344898 2978.327832,1756.645664 2973.023085,1455.647329 3137.723668,1451.824233 3223.866166,1478.433475 3361.259028,1544.783051 3227.647530,1803.551401"/>
    <poly id="138946139" type="landuse.residential" color="235,235,227" fill="1" layer="-3.00" shape="1442.981144,2721.974380 1526.508555,2723.034538 1731.306325,2716.200201 1748.556734,2719.735460 1753.895985,2841.645853 1628.143090,2841.275379 1579.328941,2930.295610 1439.663590,2858.779889 1439.894752,2749.157544 1442.981144,2721.974380"/>
    <poly id="138946140" type="landuse.residential" color="235,235,227" fill="1" layer="-3.00" shape="1362.820301,3318.668342 1462.109745,3374.257258 1582.912929,3370.077701 1578.790629,3312.260912 1499.629407,3264.816000 1483.668298,3277.791085 1458.401880,3278.741882 1422.218329,3275.986979 1362.820301,3318.668342"/>
    <poly id="138946141" type="landuse.commercial" color="209,209,204" fill="1" layer="-3.00" shape="2698.101415,3207.478997 2715.228449,3185.047852 2726.278635,3165.862785 2736.771016,3146.689501 3006.898313,3290.027261 3020.941937,3643.431510 2981.793653,3676.926134 2832.630156,3596.811103 2961.349141,3343.547554 2698.101415,3207.478997"/>
    <poly id="138946142" type="building.yes" color="255,230,230" fill="1" layer="-1.00" shape="603.424924,2040.222547 609.572598,2028.362289 706.954264,2078.376028 714.796295,2063.243241 735.042102,2073.639481 730.903023,2081.623139 730.786685,2081.565557 727.256521,2088.363088 739.002638,2094.400522 732.682250,2106.601222 718.639119,2099.390534 710.787526,2114.512054 694.922299,2106.369726 702.774080,2091.237113 635.475331,2056.679159 628.110455,2070.878422 614.251208,2063.771042 621.616273,2049.560688 603.424924,2040.222547"/>
    <poly id="138946143" type="leisure.park" color="207,245,201" fill="1" layer="-2.00" shape="1140.210940,2345.791711 1717.813917,2323.397703 1714.833371,2228.804863 1714.481443,2209.274398 1512.376375,2219.208517 1508.659348,2169.016074 1140.673234,2180.662321 1139.352602,2208.155334 1140.210940,2345.791711"/>
    <poly id="138946144" type="building.yes" color="255,230,230" fill="1" layer="-1.00" shape="614.192218,2009.178747 621.684077,2020.969184 636.739159,2011.523930 644.401719,2023.605789 656.467600,2016.034488 651.457635,2008.125853 647.359736,2010.699957 644.612002,2006.380842 761.866962,1932.789567 750.943529,1915.569677 766.216683,1905.984470 759.048609,1894.676647 743.973305,1904.143563 738.858622,1896.077743 742.362805,1893.869654 739.092502,1888.709361 542.632337,2011.993813 546.111713,2017.490508 551.466598,2014.130226 555.782706,2020.939511 584.259816,2003.060883 586.779186,2007.032080 583.433596,2009.132269 592.531714,2023.480102 603.152467,2016.813372 594.006681,2002.398130 589.681190,2005.112182 587.304639,2001.354268 602.409228,1991.876624 605.575245,1996.857565 600.566733,2000.002480 605.205941,2007.327737 610.798437,2003.816651 614.192218,2009.178747"/>
    <poly id="138946145" type="building.yes" color="255,230,230" fill="1" layer="-1.00" shape="970.174361,1957.979953 977.527329,1961.918630 975.288657,1966.056969 988.725446,1973.256755 1044.371752,2003.044649 1000.498228,2029.717661 997.316508,2024.536746 1002.738768,2021.244427 998.417020,2014.224203 986.375160,2021.540618 990.895946,2028.908207 994.002790,2027.025451 996.965917,2031.858633 941.041052,2065.848087 948.810394,2078.486488 1053.466753,2014.887211 1055.056137,1992.953663 982.325531,1954.279830 980.076665,1958.440154 972.190697,1954.225541 974.439765,1950.054133 843.760678,1880.098804 820.735914,1922.679109 951.453329,1992.657094 966.070569,1965.631591 961.139317,1963.001574 952.873481,1978.281607 921.301075,1961.378386 928.999930,1947.130013 919.689957,1942.146308 911.991111,1956.394686 902.487376,1951.307633 910.074739,1937.267838 898.255612,1930.940634 890.668261,1944.980436 883.751275,1941.271607 892.037418,1925.947559 879.520641,1919.252709 871.234511,1934.576765 838.063484,1916.812746 848.223430,1898.030949 857.843570,1903.175537 849.891675,1917.884921 861.449227,1924.074200 865.916517,1915.808385 862.002739,1913.707202 865.487354,1907.263638 967.935691,1962.118293 970.174361,1957.979953"/>
    <poly id="138946146" type="building.yes" color="255,230,230" fill="1" layer="-1.00" shape="829.522984,2092.624298 875.963283,2091.142935 871.676306,1958.853885 856.062229,1959.352588 855.905352,1954.604549 841.563937,1955.060262 841.720820,1959.808300 825.225706,1960.335116 829.522984,2092.624298"/>
    <poly id="138946147" type="building.yes" color="255,230,230" fill="1" layer="-1.00" shape="548.070322,2031.706599 554.039614,2020.497144 590.258979,2039.547226 584.289454,2050.767748 548.070322,2031.706599"/>
    <poly id="138946148" type="building.yes" color="255,230,230" fill="1" layer="-1.00" shape="879.957322,2008.409567 893.210947,2015.461732 912.076886,1980.343719 898.823228,1973.291536 879.957322,2008.409567"/>
    <poly id="138946149" type="building.yes" color="255,230,230" fill="1" layer="-1.00" shape="762.146561,1987.585547 773.218048,1987.246744 772.904682,1977.196342 774.774348,1977.142175 773.675129,1941.832684 758.707566,1942.288023 759.801553,1977.353503 761.827908,1977.291140 762.146561,1987.585547"/>
    <poly id="138946151" type="building.yes" color="255,230,230" fill="1" layer="-1.00" shape="643.101395,1965.775416 660.266352,1954.927845 662.548567,1958.495558 657.638439,1961.609007 666.909489,1976.126394 654.654465,1983.871585 650.908029,1978.004063 654.946849,1975.451043 650.800889,1968.966375 646.771848,1971.519578 643.101395,1965.775416"/>
    <poly id="138946152" type="building.yes" color="255,230,230" fill="1" layer="-1.00" shape="719.262624,1918.299698 736.408370,1907.440787 738.889821,1911.344798 734.059326,1914.382080 739.031596,1922.212447 730.301220,1927.694423 726.365126,1921.501858 722.673083,1923.817350 719.262624,1918.299698"/>
    <poly id="138946153" type="building.yes" color="255,230,230" fill="1" layer="-1.00" shape="922.265421,2036.786330 929.753483,2048.765395 960.363776,2029.840558 968.811747,2043.345196 980.578908,2036.068035 972.140724,2022.563569 977.712548,2019.118787 970.224716,2007.128607 922.265421,2036.786330"/>
    <poly id="138946154" type="building.yes" color="255,230,230" fill="1" layer="-1.00" shape="682.041080,1941.870427 698.434450,1931.485395 701.163034,1935.781996 696.144484,1938.937776 704.929197,1952.769924 693.506507,1959.942845 689.361584,1953.402749 693.172406,1951.011833 688.875496,1944.225022 684.945876,1946.691354 682.041080,1941.870427"/>
    <poly id="138946155" type="building.yes" color="255,230,230" fill="1" layer="-1.00" shape="959.427146,1996.352240 985.884200,2010.522362 989.095166,2004.594852 993.202859,2006.788361 996.687526,2000.344833 972.904204,1987.609955 980.258085,1974.031529 973.476630,1970.402757 959.427146,1996.352240"/>
    <poly id="138946156" type="building.yes" color="255,230,230" fill="1" layer="-1.00" shape="1635.940377,2184.967851 1576.473645,2187.224695 1574.763172,2142.801300 1580.627651,2142.577402 1580.093082,2128.664601 1597.422066,2128.010193 1596.144160,2094.559692 1578.805347,2095.213924 1578.389702,2084.385469 1572.534974,2084.609551 1570.677879,2036.480445 1630.154946,2034.234789 1631.883716,2079.246143 1665.934861,2077.959501 1668.774432,2151.695308 1634.723500,2152.981929 1635.940377,2184.967851"/>
    <poly id="138947063" type="landuse.residential" color="235,235,227" fill="1" layer="-3.00" shape="487.391259,3073.951130 481.333064,3096.899834 487.166293,3120.079018 35.790887,3400.425172 14.591775,2850.487719 96.038333,2847.574735 99.452888,2870.398678 487.391259,3073.951130"/>
    <poly id="138948747" type="landuse.commercial" color="209,209,204" fill="1" layer="-3.00" shape="884.673624,2572.769699 892.109444,2546.265562 1117.109568,2538.452140 1118.287947,2663.012049 1096.092151,2679.830327 884.673624,2572.769699"/>
    <poly id="139069654" type="amenity.parking" color="184,184,179" fill="1" layer="-1.00" shape="2507.281749,949.545621 2498.408745,942.096434 2496.367346,930.860696 2499.098860,920.257022 2546.313872,864.825324 2556.509777,861.655750 2624.869684,910.834687 2629.454624,921.563468 2594.049509,948.078330 2564.390175,907.192147 2507.281749,949.545621"/>
    <poly id="139069655" type="landuse.retail" color="194,194,130" fill="1" layer="-3.00" shape="2662.466963,918.464023 2610.992702,960.367587 2601.395902,948.702909 2641.792600,915.806257 2547.376778,846.618259 2526.891367,874.286862 2515.423623,865.880257 2542.011358,829.976771 2549.085306,829.997549 2605.082710,871.019153 2662.566023,913.144156 2662.466963,918.464023"/>
    <poly id="139069656" type="landuse.retail" color="194,194,130" fill="1" layer="-3.00" shape="2543.383356,818.294550 2609.970031,866.032336 2675.011400,912.655256 2676.819442,913.819788 2616.336505,963.970531 2625.142692,974.478554 2688.924796,921.606485 2689.077612,913.926109 2690.137838,910.586522 2692.203389,906.855443 2619.337745,854.266142 2547.388722,802.337449 2544.372210,804.066301 2538.759933,805.946412 2533.063695,806.028887 2499.041674,852.337697 2511.640241,861.497059 2543.383356,818.294550"/>
    <poly id="139069658" type="building.yes" color="255,230,230" fill="1" layer="-1.00" shape="2433.866348,902.291163 2442.169134,895.161525 2450.711752,905.121239 2461.881301,910.096386 2493.661583,866.983151 2503.381202,874.159823 2468.096062,924.214738 2443.233956,913.663164 2433.866348,902.291163"/>
    <poly id="139069659" type="building.yes" color="255,230,230" fill="1" layer="-1.00" shape="2479.947931,960.356745 2489.659204,953.253347 2486.373360,948.424850 2482.791156,929.022672 2514.613664,883.116382 2507.112611,877.655100 2470.403502,928.515030 2475.532093,955.784399 2479.947931,960.356745"/>
    <poly id="139069982" type="landuse.residential" color="235,235,227" fill="1" layer="-3.00" shape="3397.825708,2909.619041 3548.252356,3156.257933 3585.267269,3143.369032 3703.911475,3106.397472 3827.406997,3076.314290 3852.255125,3062.244763 3856.176522,2769.410174 3843.906355,2755.942389 3641.390264,2656.325144 3561.835864,2806.750478 3536.411413,2826.519652 3397.825708,2909.619041"/>
    <poly id="139069983" type="landuse.residential" color="235,235,227" fill="1" layer="-3.00" shape="2609.062416,1253.247490 2841.670997,1130.657589 2874.389707,1175.304671 2920.507095,1193.493277 2930.699538,1198.373084 2946.010590,1538.450743 2815.922815,1544.639968 2811.029507,1505.334331 2748.060952,1350.296740 2674.811385,1381.006678 2609.062416,1253.247490"/>
    <poly id="139069984" type="landuse.residential" color="235,235,227" fill="1" layer="-3.00" shape="2828.803889,-68.265154 2844.379427,-91.745309 3139.959922,-9.369538 3294.855461,14.131670 3315.243645,31.153791 3311.443311,64.365816 3117.242789,311.938068 3106.012122,1084.321235 3094.295077,1115.001892 3070.965351,1127.250059 3055.937391,1121.426225 2772.947746,920.433077 2766.047891,871.677363 2828.803889,-68.265154"/>
    <poly id="139069985" type="landuse.commercial" color="209,209,204" fill="1" layer="-3.00" shape="3531.710425,2074.689393 3535.193074,1980.548426 3435.993180,2029.316678 3378.460834,2065.116549 3348.953033,2093.391213 3332.469238,2120.523433 3491.441213,2177.200459 3530.890215,2147.837067 3531.710425,2074.689393"/>
    <poly id="139069987" type="landuse.residential" color="235,235,227" fill="1" layer="-3.00" shape="3288.825961,2735.666857 3393.227367,2672.072011 3400.804434,2680.185211 3555.651307,2760.823287 3529.840878,2800.697070 3382.488895,2892.191811 3288.825961,2735.666857"/>
    <poly id="139069991" type="landuse.commercial" color="209,209,204" fill="1" layer="-3.00" shape="3336.388546,2419.146669 3343.866587,2449.321044 3358.290780,2473.738072 3384.693507,2485.917272 3823.510761,2720.824680 3842.297745,2721.176622 3851.861596,2711.998351 3850.721094,2403.137038 3336.388546,2419.146669"/>
    <poly id="139069992" type="landuse.residential" color="235,235,227" fill="1" layer="-3.00" shape="2972.469025,1187.366570 3042.104935,1149.073986 3407.323846,1403.897001 3410.386072,1434.277075 3407.782875,1457.344748 3371.563972,1531.050374 3226.997539,1459.023260 3117.867781,1433.149098 2974.035508,1439.135597 2953.832236,1211.365916 2972.469025,1187.366570"/>
    <poly id="139069993" type="landuse.commercial" color="209,209,204" fill="1" layer="-3.00" shape="3391.608395,2660.289542 3282.938276,2727.718344 3203.119366,2601.387828 3197.383784,2573.241757 3212.622727,2554.046596 3316.183613,2501.455735 3350.672308,2499.760944 3445.630652,2550.463016 3391.608395,2660.289542"/>
    <poly id="139069994" type="amenity.place_of_worship" color="237,199,199" fill="1" layer="-1.00" shape="2934.567402,1177.745916 2908.536402,1170.109514 2882.082013,1157.365296 2858.309582,1110.966904 2919.953566,1080.961784 2949.284873,1076.907594 2968.616823,1085.949142 3004.960220,1118.801195 3002.744607,1127.950935 2992.217332,1141.546731 2949.107072,1168.825967 2943.292087,1177.908598 2934.567402,1177.745916"/>
    <poly id="139069995" type="building.stadium" color="255,230,230" fill="1" layer="-1.00" shape="3549.004038,2332.763144 3565.290658,2318.277772 3621.090835,2316.461347 3626.684260,2310.335123 3622.919584,2218.730448 3617.175268,2212.004028 3556.819618,2215.165517 3542.069094,2204.534354 3541.512812,2191.906958 3611.070004,2187.442973 3627.694310,2191.002525 3642.140734,2201.151368 3648.835544,2217.208665 3652.198361,2311.455636 3648.967382,2325.176307 3639.782448,2336.058153 3628.839138,2342.616431 3549.671396,2345.204144 3549.004038,2332.763144"/>
    <poly id="139069996" type="leisure.pitch" color="207,245,201" fill="1" layer="-2.00" shape="3564.888460,2315.720239 3624.237972,2313.493488 3619.994623,2214.529181 3561.163000,2217.286771 3564.888460,2315.720239"/>
    <poly id="139069996#1" type="sport.hockey" color="79,230,125" fill="1" layer="-2.00" shape="3564.888460,2315.720239 3624.237972,2313.493488 3619.994623,2214.529181 3561.163000,2217.286771 3564.888460,2315.720239"/>
    <poly id="139071683" type="landuse.industrial" color="209,209,204" fill="1" layer="-3.00" shape="5017.371674,3108.913756 5218.831867,3093.418842 5223.399401,2936.777277 5172.081678,2701.915898 5206.769148,2490.384367 4940.505498,2428.292184 4898.095681,2596.594269 4962.901381,2613.724311 4929.230969,2884.757680 4986.526018,2997.228788 5017.371674,3108.913756"/>
    <poly id="139071685" type="landuse.industrial" color="209,209,204" fill="1" layer="-3.00" shape="4728.084422,3154.900990 4790.616939,2880.396896 4856.487414,2900.129802 4866.708563,2872.183126 4897.331690,2919.380848 4929.114521,2990.703880 4951.699256,3121.336174 4744.149414,3160.026116 4728.084422,3154.900990"/>
    <poly id="139071814" type="landuse.industrial" color="209,209,204" fill="1" layer="-3.00" shape="4675.149846,3229.752050 4966.704108,3178.595425 5023.958986,3166.380416 5027.085774,3264.726630 4935.493836,3675.342401 4939.821934,3757.180343 4978.344465,3992.443048 4877.125989,3988.884534 4807.056106,3918.193154 4707.555952,3912.185000 4621.931031,3874.241737 4552.721442,3801.905190 4629.025831,3540.709030 4592.805593,3524.328568 4675.149846,3229.752050"/>
    <poly id="139071816" type="leisure.park" color="207,245,201" fill="1" layer="-2.00" shape="4241.992487,2200.872560 4150.310549,2266.539544 4154.895952,2275.572792 4246.981357,2273.907828 4241.992487,2200.872560"/>